Infrared Spectrum: Caffeine
Formula: C 8 H 10 N 4 O 2
CAS: 58-08-2
State: solid
Instrument: Bruker Tensor 37 FTIR
Resolution: 0.96450084
Origin: Pacific Northwest National Laboratory Under IARPA Contract
1/cm	Reflectance
7498.03	0.822442
7480.64	0.812054
7463.25	0.801824
7445.87	0.79686
7428.48	0.789101
7411.09	0.782994
7393.7	0.775461
7376.32	0.770232
7358.93	0.777407
7341.54	0.783315
7324.15	0.776333
7306.76	0.779321
7289.38	0.774437
7271.99	0.77385
7254.6	0.780951
7237.21	0.787157
7219.83	0.797506
7202.44	0.803869
7185.05	0.806475
7167.66	0.812277
7150.27	0.815461
7132.89	0.819402
7115.5	0.825659
7098.11	0.825958
7080.72	0.835961
7063.34	0.834525
7045.95	0.831404
7028.56	0.82584
7011.17	0.815327
6993.78	0.805313
6976.4	0.801413
6959.01	0.79755
6941.62	0.80142
6924.23	0.810344
6906.85	0.818336
6889.46	0.819745
6872.07	0.827393
6854.68	0.832982
6837.29	0.84345
6819.91	0.855663
6802.52	0.861776
6785.13	0.865869
6767.74	0.868076
6750.36	0.871602
6732.97	0.871342
6715.58	0.872893
6698.19	0.874034
6680.8	0.876224
6663.42	0.876195
6646.03	0.877396
6628.64	0.876392
6611.25	0.877571
6593.87	0.874722
6576.48	0.877307
6559.09	0.877302
6541.7	0.87816
6524.31	0.875039
6506.93	0.87566
6489.54	0.874696
6472.15	0.872897
6454.76	0.872713
6437.38	0.869999
6419.99	0.866721
6402.6	0.865531
6385.21	0.864209
6367.82	0.858415
6350.44	0.859104
6333.05	0.853508
6315.66	0.852745
6298.27	0.846078
6280.89	0.841074
6263.5	0.835082
6246.11	0.826075
6228.72	0.814386
6211.34	0.803923
6193.95	0.788883
6176.56	0.764988
6159.17	0.73881
6141.78	0.717667
6124.4	0.688072
6107.01	0.668295
6089.62	0.660219
6072.23	0.656062
6054.85	0.644405
6037.46	0.630259
6020.07	0.619246
6002.68	0.58635
5985.29	0.554388
5967.91	0.571779
5950.52	0.611545
5933.13	0.642433
5915.74	0.659425
5898.36	0.661326
5880.97	0.650134
5863.58	0.636127
5846.19	0.63203
5828.8	0.634481
5811.42	0.640583
5794.03	0.647227
5776.64	0.662405
5759.25	0.682953
5741.87	0.704444
5724.48	0.722179
5707.09	0.736319
5689.7	0.748818
5672.31	0.755662
5654.93	0.760662
5637.54	0.760887
5620.15	0.758192
5602.76	0.757572
5585.38	0.756518
5567.99	0.756302
5550.6	0.758829
5533.21	0.755087
5515.82	0.756867
5498.44	0.765235
5481.05	0.775029
5463.66	0.781233
5446.27	0.7853
5428.89	0.788845
5411.5	0.789207
5394.11	0.787641
5376.72	0.788416
5359.33	0.788902
5341.95	0.788922
5324.56	0.788115
5307.17	0.785552
5289.78	0.782826
5272.4	0.777151
5255.01	0.770208
5237.62	0.766445
5220.23	0.75869
5202.84	0.742234
5185.46	0.738989
5168.07	0.754203
5150.68	0.767942
5133.29	0.775666
5115.91	0.779574
5098.52	0.779156
5081.13	0.780724
5063.74	0.784757
5046.36	0.784132
5028.97	0.776667
5011.58	0.771481
4994.19	0.773693
4976.8	0.771939
4959.42	0.768677
4942.03	0.759962
4924.64	0.755314
4907.25	0.761393
4889.87	0.759276
4872.48	0.753919
4855.09	0.747908
4837.7	0.732626
4820.31	0.704763
4802.93	0.67708
4785.54	0.679055
4768.15	0.655309
4750.76	0.645901
4733.38	0.64899
4715.99	0.637286
4698.6	0.624767
4681.21	0.603314
4663.82	0.571343
4646.44	0.567969
4629.05	0.575975
4611.66	0.563565
4594.27	0.554792
4576.89	0.544424
4559.5	0.520709
4542.11	0.494536
4524.72	0.456278
4507.33	0.404134
4489.95	0.353624
4472.56	0.300822
4455.17	0.267192
4437.78	0.25194
4420.4	0.256285
4403.01	0.275888
4385.62	0.29643
4368.23	0.330141
4350.84	0.360617
4333.46	0.371338
4316.07	0.387722
4298.68	0.382363
4281.29	0.395485
4263.91	0.430582
4246.52	0.440801
4229.13	0.443538
4211.74	0.45303
4194.35	0.449875
4176.97	0.439164
4159.58	0.434486
4142.19	0.392724
4124.8	0.364276
4107.42	0.370441
4090.03	0.423349
4072.64	0.465288
4055.25	0.499554
4037.86	0.508377
4020.48	0.515716
4003.09	0.527237
3985.7	0.51192
3968.31	0.502087
3950.93	0.508652
3933.54	0.547638
3916.15	0.570228
3898.76	0.594283
3881.38	0.614055
3863.99	0.617232
3846.6	0.59909
3829.21	0.62977
3811.82	0.646624
3794.44	0.649556
3777.05	0.637109
3759.66	0.596281
3742.27	0.592418
3724.89	0.606259
3707.5	0.610853
3690.11	0.611614
3672.72	0.625963
3655.33	0.62917
3637.95	0.629198
3620.56	0.623546
3603.17	0.604549
3585.78	0.588914
3568.4	0.57018
3551.01	0.552412
3533.62	0.546549
3516.23	0.54393
3498.84	0.530925
3481.46	0.528663
3464.07	0.522137
3446.68	0.507951
3429.29	0.485481
3411.91	0.445313
3394.52	0.387482
3377.13	0.370847
3359.74	0.331468
3342.35	0.238745
3324.97	0.221725
3307.58	0.281446
3290.19	0.262979
3272.8	0.328684
3255.42	0.331806
3238.03	0.291173
3220.64	0.320175
3203.25	0.28825
3185.86	0.237633
3168.48	0.235452
3151.09	0.206305
3133.7	0.164375
3116.31	0.0692109
3098.93	0.0631613
3081.54	0.101637
3064.15	0.145492
3046.76	0.144951
3029.37	0.131964
3011.99	0.120963
2994.6	0.105997
2977.21	0.101676
2959.82	0.0653622
2942.44	0.0619437
2925.05	0.0949344
2907.66	0.121118
2890.27	0.126401
2872.88	0.132112
2855.5	0.178796
2838.11	0.202865
2820.72	0.222582
2803.33	0.260381
2785.95	0.276223
2768.56	0.285336
2751.17	0.287448
2733.78	0.2851
2716.4	0.265775
2699.01	0.299027
2681.62	0.291804
2664.23	0.257382
2646.84	0.308993
2629.46	0.320515
2612.07	0.288344
2594.68	0.28856
2577.29	0.263491
2559.91	0.225888
2542.52	0.286215
2525.13	0.3137
2507.74	0.331154
2490.35	0.275123
2472.97	0.291748
2455.58	0.291509
2438.19	0.289194
2420.8	0.271645
2403.42	0.287717
2386.03	0.263086
2368.64	0.326615
2351.25	0.324003
2333.86	0.311974
2316.48	0.369604
2299.09	0.315099
2281.7	0.333193
2264.31	0.34843
2246.93	0.277836
2229.54	0.341509
2212.15	0.321778
2194.76	0.308864
2177.37	0.319419
2159.99	0.372331
2142.6	0.361879
2125.21	0.349877
2107.82	0.401648
2090.44	0.374787
2073.05	0.412549
2055.66	0.424228
2038.27	0.323363
2020.88	0.300286
2003.5	0.322327
1986.11	0.273604
1968.72	0.303064
1951.33	0.303356
1933.95	0.290507
1916.56	0.299984
1899.17	0.269174
1881.78	0.286365
1864.39	0.218378
1847.01	0.172674
1829.62	0.168878
1812.23	0.141532
1794.84	0.129227
1777.46	0.116292
1760.07	0.0620469
1742.68	0.0563488
1725.29	0.0299829
1707.9	0.0265505
1690.52	0.0417283
1673.13	0.0293994
1655.74	0.0365224
1638.35	0.0398348
1620.97	0.0513503
1603.58	0.0683939
1586.19	0.047559
1568.8	0.0664427
1551.41	0.0341216
1534.03	0.0358867
1516.64	0.0623735
1499.25	0.0459238
1481.86	0.0282939
1464.48	0.0336576
1447.09	0.0318358
1429.7	0.034123
1412.31	0.0465943
1394.93	0.0418461
1377.54	0.0618472
1360.15	0.0514745
1342.76	0.0537971
1325.37	0.100441
1307.99	0.110158
1290.6	0.0920781
1273.21	0.0415935
1255.82	0.0938852
1238.44	0.0332406
1221.05	0.0362165
1203.66	0.0484413
1186.27	0.0565419
1168.88	0.102167
1151.5	0.163417
1134.11	0.166713
1116.72	0.146936
1099.33	0.171149
1081.95	0.157962
1064.56	0.0884177
1047.17	0.138169
1029.78	0.0860919
1012.39	0.0406416
995.007	0.174877
977.619	0.115062
960.231	0.0447845
942.843	0.218658
925.456	0.235698
908.068	0.241291
890.68	0.236046
873.292	0.1274
855.905	0.0680695
838.517	0.134246
821.129	0.291372
803.741	0.330329
786.353	0.252312
768.966	0.265284
751.578	0.0653557
734.19	0.0407686
716.802	0.115033
699.415	0.28782
682.027	0.329764
664.639	0.397346
647.251	0.339334
629.864	0.142305
612.476	0.100588
